     541
SCF Done           -8333.98142516
Ti            0.000000000         6.487000000         0.000000000
Ti           14.770285938         0.001805304         0.001607920
Ti           11.816011547         0.001765474         0.003182622
Ti            8.861439986         0.001765475         0.003182596
Ti            5.907165620         0.001805306         0.001607877
Ti            2.953451585         0.001860964        48.345999968
Ti           17.724000000         0.001860959         0.000000000
Ti           14.771617195        12.974930480         0.021406018
Ti           11.816694181        12.974930480         0.033109367
Ti            8.860757215        12.974930480         0.033108602
Ti            5.905834380        12.974930480         0.021404678
Ti            2.952802860        12.974930480         0.010312680
Ti            0.000648856        12.974930480         0.010313283
Ti           14.770285938         6.487055656         0.001607919
Ti           11.816011547         6.487095485         0.003182622
Ti            8.861439986         6.487095484         0.003182596
Ti            5.907165620         6.487055653         0.001607877
Ti            2.953451585         6.486999996        48.345999968
Ti           13.293889268        16.218921161        48.120018154
Ti           10.338725731        16.218929921        48.123542773
Ti            7.383562233        16.218921174        48.120017657
Ti           10.338725731         9.730931038        48.123542772
Ti            4.429619162         9.730876428        48.113381983
Ti            1.476725835         9.730826846        48.110285981
Ti           10.338725780         3.244430480        48.106708070
Ti            4.430506720         3.244430480        48.103878036
Ti            1.476725775         3.244430480        48.103006666
Ti           16.247832452        16.218984523        48.113382493
Ti            4.429619162        16.218984531        48.113381983
Ti            1.476725835        16.219034114        48.110285981
Ti           16.247832452         9.730876436        48.113382493
Ti           13.293889268         9.730939798        48.120018154
Ti            7.383562233         9.730939786        48.120017657
Ti           16.246944837         3.244430480        48.103878038
Ti           13.292973988         3.244430480        48.105718850
Ti            7.384477568         3.244430480        48.105718835
Ti           17.723691215         3.244430480        44.982121622
Ti           14.770500506        16.218445633        44.996023765
Ti           11.816129448        16.218292424        45.002828773
Ti            8.861321975        16.218292449        45.002828531
Ti            5.906951069        16.218445666        44.996023114
Ti            2.953390531        16.218727014        44.989972891
Ti            0.000061161        16.218727025        44.989973217
Ti           14.770500506         9.731415326        44.996023765
Ti           11.816129448         9.731568535        45.002828773
Ti            8.861321975         9.731568511        45.002828531
Ti            5.906951069         9.731415294        44.996023114
Ti            2.953390531         9.731133946        44.989972890
Ti            0.000061161         9.731133935        44.989973217
Ti           14.769718513         3.244430480        44.983591357
Ti           11.815752753         3.244430480        44.985440193
Ti            8.861698799         3.244430480        44.985440203
Ti            5.907733039         3.244430480        44.983591355
Ti            2.953760341         3.244430480        44.982121656
Ti            1.476725797         6.487679483        45.066265774
Ti           16.246989478         0.000992550        45.067368544
Ti           13.293001654         0.000953598        45.069711340
Ti           10.338725765         0.000981185        45.070887207
Ti            7.384449893         0.000953611        45.069711272
Ti            4.430462080         0.000992568        45.067368459
Ti            1.476725797         0.001181476        45.066265774
Ti           16.249760242        12.974930480        45.082079024
Ti           13.296294390        12.974930480        45.097750187
Ti           10.338725528        12.974930480        45.106771942
Ti            7.381157072        12.974930480        45.097748514
Ti            4.427691557        12.974930480        45.082077710
Ti            1.476725907        12.974930480        45.074223395
Ti           16.246989478         6.487868410        45.067368543
Ti           13.293001654         6.487907361        45.069711340
Ti           10.338725765         6.487879775        45.070887207
Ti            7.384449893         6.487907348        45.069711272
Ti            4.430462080         6.487868392        45.067368458
Ti           17.723826430         6.487992450        41.873183062
Ti           14.769843173         0.000771234        41.875507273
Ti           11.815934951         0.000585037        41.877931037
Ti            8.861516571         0.000585053        41.877930960
Ti            5.907608357         0.000771252        41.875507274
Ti            2.953625169         0.000868477        41.873182942
Ti           17.723826430         0.000868509        41.873183062
Ti           14.775615113        12.974930480        41.902104348
Ti           11.816567249        12.974930480        41.931330629
Ti            8.860883576        12.974930480        41.931327899
Ti            5.901836875        12.974930480        41.902101390
Ti            2.952085804        12.974930480        41.879415662
Ti            0.001366106        12.974930480        41.879416335
Ti           14.769843173         6.488089725        41.875507273
Ti           11.815934951         6.488275922        41.877931037
Ti            8.861516571         6.488275906        41.877930961
Ti            5.907608357         6.488089707        41.875507274
Ti            2.953625169         6.487992483        41.873182942
Ti            1.476725788         3.244430480        41.870608830
Ti           16.248694900        16.218844803        41.879758727
Ti           13.294942333        16.217408765        41.888443141
Ti           10.338725731        16.217769015        41.893132011
Ti            7.382509078        16.217408842        41.888442345
Ti            4.428756804        16.218844738        41.879757923
Ti            1.476725853        16.218742359        41.876699208
Ti           16.248694900         9.731016156        41.879758726
Ti           13.294942333         9.732452194        41.888443140
Ti           10.338725731         9.732091944        41.893132010
Ti            7.382509078         9.732452117        41.888442344
Ti            4.428756804         9.731016221        41.879757923
Ti            1.476725853         9.731118601        41.876699208
Ti           16.246844053         3.244430480        41.871381706
Ti           13.293030721         3.244430480        41.873460919
Ti           10.338725769         3.244430480        41.875056093
Ti            7.384420814         3.244430480        41.873460914
Ti            4.430607485         3.244430480        41.871381711
Ti           17.723685651         3.244430480        38.762713655
Ti           14.772605067        16.218759055        38.776559529
Ti           11.818289161        16.219677852        38.788329088
Ti            8.859162154        16.219678053        38.788329299
Ti            5.904846705        16.218758657        38.776557748
Ti            2.953051734        16.217873548        38.767412398
Ti            0.000399872        16.217873602        38.767412897
Ti           14.772605067         9.731101904        38.776559529
Ti           11.818289160         9.730183106        38.788329089
Ti            8.859162155         9.730182906        38.788329300
Ti            5.904846705         9.731102302        38.776557747
Ti            2.953051734         9.731987412        38.767412398
Ti            0.000399872         9.731987358        38.767412896
Ti           14.769919458         3.244430480        38.764173671
Ti           11.815640993         3.244430480        38.768688711
Ti            8.861810524         3.244430480        38.768688709
Ti            5.907532019         3.244430480        38.764173709
Ti            2.953765924         3.244430480        38.762713654
Ti            1.476725796         6.488175088        38.676126610
Ti           16.246405719         0.000554570        38.677693801
Ti           13.292603791         0.004054419        38.680339413
Ti           10.338725754         0.002485156        38.682971640
Ti            7.384847671         0.004054554        38.680339433
Ti            4.431045866         0.000554408        38.677693601
Ti            1.476725796         0.000685871        38.676126610
Ti           16.255939176        12.974930480        38.678954854
Ti           13.322730136        12.974930478        38.750978406
Ti           10.338724739        12.974930479        38.745682764
Ti            7.354722436        12.974930478        38.750969242
Ti            4.421512522        12.974930480        38.678953399
Ti            1.476725770        12.974930480        38.675709080
Ti           16.246405719         6.488306390        38.677693800
Ti           13.292603791         6.484806540        38.680339413
Ti           10.338725754         6.486375803        38.682971641
Ti            7.384847671         6.484806405        38.680339433
Ti            4.431045866         6.488306552        38.677693600
Ti            1.476725788         3.244430479        35.638146673
Ti            0.000609611         6.489997739        35.398725807
Ti           16.247932064        16.216632813        35.644031517
Ti           14.772205131        19.459358823        35.400943521
Ti           13.295307446        16.217147400        35.647712172
Ti           11.819907273         0.004516189        35.403019481
Ti           10.338725613        16.265300105        35.682208862
Ti            8.857544065         0.004515990        35.403020000
Ti            7.382144318        16.217146055        35.647710341
Ti            5.905246415        19.459358430        35.400943503
Ti            4.429519169        16.216632606        35.644030509
Ti            2.952841889        19.459863144        35.398725660
Ti            1.476725550        16.216045008        35.641815206
Ti            0.000609611        19.459863218        35.398725808
Ti           16.247932067         9.733228146        35.644031516
Ti           14.788700816        12.974930477        35.382859138
Ti           13.295307449         9.732713563        35.647712173
Ti           11.898069219        12.974930467        35.642206887
Ti           10.338725613         9.684560854        35.682208857
Ti            8.779382688        12.974930467        35.642172025
Ti            7.382144315         9.732714907        35.647710342
Ti            5.888749208        12.974930477        35.382856798
Ti            4.429519166         9.733228353        35.644030507
Ti            2.949428840        12.974930480        35.389126171
Ti            1.476725550         9.733815952        35.641815206
Ti            0.004021041        12.974930480        35.389126466
Ti           16.245958903         3.244430478        35.638814567
Ti           14.772205131         6.490502139        35.400943520
Ti           13.291928980         3.244430478        35.639722527
Ti           11.819907273         6.484344777        35.403019481
Ti           10.338725685         3.244430477        35.644512579
Ti            8.857544064         6.484344976        35.403020000
Ti            7.385522435         3.244430478        35.639722582
Ti            5.905246415         6.490502532        35.400943502
Ti            4.431492642         3.244430478        35.638814471
Ti            2.952841889         6.489997813        35.398725658
O             1.476725798         6.485391593         0.994519258
O            16.247415026         0.002666102         0.995226982
O            13.293404139         0.000806061         0.996636510
O            10.338725762        19.460801366         0.997331728
O             7.384047405         0.000806190         0.996636471
O             4.430036544         0.002666262         0.995226939
O             1.476725798         0.003469367         0.994519259
O            16.250898798        12.974930480         1.009548695
O            13.297059971        12.974930480         1.020162840
O            10.338725502        12.974930480         1.025731361
O             7.380391363        12.974930480         1.020161818
O             4.426553034        12.974930480         1.009547749
O             1.476726017        12.974930480         1.004311033
O            16.247415026         6.486194857         0.995226981
O            13.293404139         6.488054899         0.996636510
O            10.338725762         6.489059593         0.997331728
O             7.384047405         6.488054770         0.996636471
O             4.430036544         6.486194698         0.995226939
O            14.770604965        15.037756631        48.272233136
O            11.816168402        15.037769115        48.279767655
O             8.861283057        15.037769124        48.279767167
O             5.906846595        15.037756635        48.272232255
O             2.953300889        15.037800425        48.264951725
O             0.000150779        15.037800426        48.264952149
O            14.770587079         8.550152576        48.263376098
O            11.816171577         8.550569221        48.265180021
O             8.861279894         8.550569206        48.265179934
O             5.906864470         8.550152541        48.263375946
O             2.953313685         8.549747858        48.261485725
O             0.000137979         8.549747874        48.261485819
O            11.815605286         2.063510913        48.258590412
O             2.953850947         2.063601080        48.255273160
O            17.723600593         2.063601075        48.255273206
O            14.769475549         2.063547990        48.256935547
O             8.861846286         2.063510916        48.258590372
O             5.907976011         2.063547996        48.256935477
O            17.723600593         4.425259883        48.255273206
O            14.770587079        17.399708383        48.263376099
O            11.816171577        17.399291738        48.265180021
O             8.861279894        17.399291753        48.265179934
O             5.906864470        17.399708418        48.263375946
O             2.953313685        17.400113101        48.261485726
O             0.000137979        17.400113085        48.261485820
O            11.816168402        10.912091843        48.279767655
O             2.953300889        10.912060533        48.264951725
O             0.000150779        10.912060531        48.264952149
O            14.769475549         4.425312968        48.256935547
O            11.815605286         4.425350045        48.258590412
O             8.861846286         4.425350042        48.258590372
O             5.907976011         4.425312962        48.256935477
O             2.953850947         4.425259878        48.255273160
O            14.770604965        10.912104326        48.272233136
O             8.861283057        10.912091834        48.279767168
O             5.906846595        10.912104322        48.272232256
O             1.476725784         6.488139615        46.967219416
O            16.245680876         0.000802776        46.968040034
O            13.291694506         0.001209150        46.969751366
O            10.338725775         0.001422764        46.970621957
O             7.385757039         0.001209106        46.969751299
O             4.431770694         0.000802717        46.968039959
O             1.476725784         0.000721344        46.967219417
O            16.244933552        12.974930480        46.982040493
O            13.290589412        12.974930480        46.993570382
O            10.338725834        12.974930480        46.999864237
O             7.386862140        12.974930480        46.993569208
O             4.432517979        12.974930480        46.982039438
O             1.476725775        12.974930479        46.976224809
O            16.245680876         6.488058183        46.968040034
O            13.291694506         6.487651810        46.969751366
O            10.338725775         6.487438195        46.970621958
O             7.385757039         6.487651853        46.969751299
O             4.431770694         6.488058242        46.968039958
O             1.476725753         3.244430480        46.225960410
O            16.247654283        16.218660812        46.235974190
O            13.293624590        16.216317252        46.241736536
O            10.338725699        16.214956436        46.244754906
O             7.383826826        16.216317492        46.241736053
O             4.429797387        16.218660908        46.235973680
O             1.476725901        16.219611089        46.233317801
O            16.247654283         9.731200148        46.235974190
O            13.293624590         9.733543707        46.241736536
O            10.338725699         9.734904523        46.244754906
O             7.383826826         9.733543467        46.241736053
O             4.429797387         9.731200052        46.235973680
O             1.476725901         9.730249871        46.233317801
O            16.246151978         3.244430480        46.226678974
O            13.292236747         3.244430480        46.228187390
O            10.338725793         3.244430480        46.229027960
O             7.385214811         3.244430480        46.228187372
O             4.431299577         3.244430480        46.226678967
O            17.723115149         5.212940316        45.018976723
O            17.723115149         1.275920642        45.018976723
O            14.768500879        18.185581156        45.023303053
O            14.770811098        14.249676371        45.036495624
O            11.815058898        18.185028936        45.025722562
O            11.816025939        14.248364135        45.041209435
O             8.862392638        18.185028956        45.025722433
O             8.861425324        14.248364235        45.041209140
O             5.908950669        18.185581197        45.023302718
O             5.906640561        14.249676429        45.036494611
O             2.954245498        18.186229279        45.021073305
O             2.953309195        14.250344285        45.030101004
O            17.723206094        18.186229279        45.021073465
O             0.000142585        14.250344302        45.030101578
O            14.770811098        11.700184588        45.036495624
O            14.768500879         7.764279802        45.023303053
O            11.816025939        11.701496824        45.041209435
O            11.815058898         7.764832022        45.025722562
O             8.861425324        11.701496724        45.041209140
O             8.862392638         7.764832002        45.025722433
O             5.906640561        11.700184530        45.036494611
O             5.908950669         7.764279761        45.023302718
O             2.953309195        11.699516674        45.030101003
O             2.954245498         7.763631679        45.021073304
O             0.000142585        11.699516657        45.030101577
O            17.723206094         7.763631679        45.021073465
O            14.768633634         5.213360422        45.019089554
O            14.768633634         1.275500536        45.019089554
O            11.815166921         5.213720640        45.019334705
O            11.815166921         1.275140318        45.019334705
O             8.862284633         5.213720626        45.019334714
O             8.862284633         1.275140332        45.019334714
O             5.908817923         5.213360409        45.019089514
O             5.908817923         1.275500549        45.019089514
O             2.954336408         5.212940301        45.018976761
O             2.954336408         1.275920657        45.018976761
O             1.476725793         3.244430480        43.768652391
O            16.244151836        16.216707837        43.777438194
O            13.289725544        16.215874899        43.783364604
O            10.338725730        16.215607799        43.786426978
O             7.387726068        16.215874859        43.783363964
O             4.433299729        16.216707775        43.777437572
O             1.476725786        16.216320632        43.775131582
O            16.244151836         9.733153123        43.777438194
O            13.289725544         9.733986060        43.783364603
O            10.338725730         9.734253160        43.786426978
O             7.387726068         9.733986100        43.783363964
O             4.433299729         9.733153185        43.777437572
O             1.476725786         9.733540327        43.775131582
O            16.245415344         3.244430480        43.769212885
O            13.291259123         3.244430480        43.770542519
O            10.338725771         3.244430480        43.771420187
O             7.386192433         3.244430480        43.770542505
O             4.432036189         3.244430480        43.769212883
O             1.476725825         6.487912193        43.107107816
O            16.245650362        19.460102469        43.107509574
O            13.291590211        19.457649222        43.108723266
O            10.338725745        19.456261206        43.109202231
O             7.385861362        19.457649276        43.108723196
O             4.431801149        19.460102580        43.107509481
O             1.476725825         0.000948767        43.107107816
O            16.251780939        12.974930480        43.121297835
O            13.298768658        12.974930479        43.137793354
O            10.338725074        12.974930480        43.145068394
O             7.378682774        12.974930479        43.137791094
O             4.425671235        12.974930480        43.121296314
O             1.476726050        12.974930480        43.113146614
O            16.245650362         6.489758491        43.107509574
O            13.291590211         6.492211738        43.108723266
O            10.338725745         6.493599754        43.109202231
O             7.385861362         6.492211684        43.108723196
O             4.431801149         6.489758379        43.107509480
O            17.722735973         1.982446191        41.861568563
O            17.722735973         4.506414767        41.861568563
O            14.768105114        14.954527633        41.874896944
O            14.766613433        17.476122679        41.864508542
O            11.814432440        14.952622123        41.880333378
O            11.814540705        17.473349676        41.861872335
O             8.863018907        14.952622221        41.880332135
O             8.862910780        17.473349681        41.861871957
O             5.909346540        14.954527595        41.874895521
O             5.910838038        17.476122762        41.864508386
O             2.954411894        14.956135912        41.867346740
O             2.954011810        17.478719112        41.867322910
O            17.723039833        14.956135942        41.867347291
O            17.723439929        17.478719174        41.867323292
O            14.766613433         8.473738280        41.864508541
O            14.768105114        10.995333325        41.874896944
O            11.814540705         8.476511283        41.861872335
O            11.814432440        10.997238835        41.880333377
O             8.862910779         8.476511278        41.861871957
O             8.863018907        10.997238736        41.880332134
O             5.910838038         8.473738197        41.864508385
O             5.909346540        10.995333363        41.874895520
O             2.954011810         8.471141847        41.867322909
O             2.954411894        10.993725046        41.867346739
O            17.723439929         8.471141785        41.867323291
O            17.723039833        10.993725016        41.867347291
O            14.767817873         1.982179187        41.862201533
O            14.767817873         4.506681772        41.862201532
O            11.814761603         1.981964318        41.862170191
O            11.814761603         4.506896640        41.862170191
O             8.862689939         1.981964322        41.862170142
O             8.862689939         4.506896636        41.862170143
O             5.909633654         1.982179194        41.862201519
O             5.909633654         4.506681764        41.862201519
O             2.954715592         1.982446172        41.861568491
O             2.954715592         4.506414786        41.861568491
O             1.476725776         6.491454543        40.623925909
O            16.243408580        19.457737295        40.624463109
O            13.289519191        19.457635769        40.625732073
O            10.338725786        19.455482016        40.626614989
O             7.387932256        19.457635821        40.625732018
O             4.434043051        19.457737103        40.624462934
O             1.476725776        19.458406417        40.623925910
O            16.241769148        12.974930480        40.634800422
O            13.277103212        12.974930480        40.659916577
O            10.338726166        12.974930480        40.659434999
O             7.400348086        12.974930480        40.659912571
O             4.435682405        12.974930480        40.634798605
O             1.476725786        12.974930479        40.626248686
O            16.243408580         6.492123665        40.624463108
O            13.289519190         6.492225191        40.625732072
O            10.338725786         6.494378943        40.626614989
O             7.387932256         6.492225138        40.625732017
O             4.434043052         6.492123856        40.624462933
O             1.476725778         3.244430480        39.963984387
O            16.248334414        16.220612876        39.970985846
O            13.289474053        16.199818885        39.973619182
O            10.338725806        16.189152846        39.977849060
O             7.387976870        16.199819536        39.973618243
O             4.429117648        16.220612256        39.970984828
O             1.476725931        16.216613608        39.968177272
O            16.248334414         9.729248083        39.970985846
O            13.289474053         9.750042072        39.973619181
O            10.338725806         9.760708109        39.977849060
O             7.387976869         9.750041421        39.973618242
O             4.429117648         9.729248702        39.970984827
O             1.476725931         9.733247351        39.968177272
O            16.245235605         3.244430480        39.964256730
O            13.291652470         3.244430481        39.964830181
O            10.338725776         3.244430481        39.966319761
O             7.385799043         3.244430481        39.964830177
O             4.432215908         3.244430480        39.964256738
O            17.721769632         5.214165985        38.708330048
O            17.721769633         1.274694972        38.708330049
O            14.760324896        18.179017693        38.706892851
O            14.774602068        14.250476402        38.738880287
O            11.813469292        18.176588291        38.710773604
O            11.805711497        14.226575705        38.679551529
O             8.863982036        18.176588441        38.710773693
O             8.871739673        14.226576193        38.679551118
O             5.917126821        18.179017412        38.706891899
O             5.902850228        14.250475944        38.738875440
O             2.956856109        18.182748835        38.705676832
O             2.954285023        14.248526821        38.706553168
O            17.720595470        18.182748923        38.705676943
O            17.723166535        14.248526850        38.706553870
O            14.774602069        11.699384555        38.738880288
O            14.760324896         7.770843266        38.706892849
O            11.805711497        11.723285254        38.679551535
O            11.813469291         7.773272667        38.710773603
O             8.871739674        11.723284765        38.679551124
O             8.863982037         7.773272518        38.710773691
O             5.902850227        11.699385013        38.738875441
O             5.917126822         7.770843546        38.706891898
O             2.954285024        11.701334137        38.706553168
O             2.956856109         7.767112122        38.705676830
O            17.723166535        11.701334109        38.706553869
O            17.720595470         7.767112035        38.705676942
O            14.765975417         5.214619256        38.707682227
O            14.765975418         1.274241702        38.707682229
O            11.812584755         5.215454063        38.706291548
O            11.812584755         1.273406896        38.706291549
O             8.864866815         5.215454014        38.706291568
O             8.864866815         1.273406945        38.706291570
O             5.911476005         5.214619293        38.707682323
O             5.911476005         1.274241666        38.707682325
O             2.955681958         5.214166040        38.708330026
O             2.955681958         1.274694918        38.708330028
O             1.476725810         3.244430480        37.508800707
O            16.236188233        16.204504376        37.512514791
O            13.278189926        16.187531877        37.512848931
O            10.338725153        16.205976041        37.530979535
O             7.399262748        16.187530262        37.512847166
O             4.441263058        16.204504422        37.512513855
O             1.476725589        16.210965719        37.511823182
O            16.236188232         9.745356582        37.512514790
O            13.278189924         9.762329085        37.512848929
O            10.338725153         9.743884921        37.530979531
O             7.399262750         9.762330700        37.512847164
O             4.441263058         9.745356537        37.512513854
O             1.476725589         9.738895240        37.511823181
O            16.242510821         3.244430480        37.508808558
O            13.286441099         3.244430480        37.508514272
O            10.338725764         3.244430480        37.510316880
O             7.391010328         3.244430480        37.508514324
O             4.434940726         3.244430480        37.508808487
O             1.476725770         6.488850333        36.768556506
O            16.240138576        19.458548088        36.769412485
O            13.284225233        19.456532613        36.769487704
O            10.338725830        19.442287803        36.769688015
O             7.393226150        19.456533160        36.769487815
O             4.437312876        19.458548025        36.769412323
O             1.476725770         0.000010626        36.768556507
O            16.240906547        12.974930479        36.757136070
O            13.339641401        12.974930471        36.832430832
O            10.338726956        12.974930476        36.671735916
O             7.337812659        12.974930471        36.832419211
O             4.436544429        12.974930479        36.757134819
O             1.476725284        12.974930479        36.761301884
O            16.240138575         6.491312872        36.769412484
O            13.284225231         6.493328350        36.769487702
O            10.338725830         6.507573162        36.769688013
O             7.393226152         6.493327804        36.769487813
O             4.437312877         6.491312935        36.769412321
O            17.721160199         2.062205557        35.476701048
O            14.747461146        15.020347697        35.461772878
O            11.760533313        14.974027239        35.486924776
O             8.916919107        14.974026395        35.486911530
O             5.929989941        15.020347528        35.461771354
O             2.959835764        15.031264885        35.474942016
O            17.717614954        15.031264872        35.474942284
O            14.766028887         8.566487974        35.489439824
O            11.825883611         8.583766434        35.489486073
O             8.851567709         8.583766680        35.489487590
O             5.911422829         8.566488487        35.489439494
O             2.955456108         8.557941890        35.486940455
O            17.721995086         8.557941819        35.486940803
O            14.763853285         2.061307551        35.475549851
O            11.809597933         2.059022455        35.470843565
O             8.867853472         2.059022442        35.470843682
O             5.913598193         2.061307501        35.475549639
O             2.956291356         2.062205534        35.476700892
O            17.721160198         4.426655399        35.476701048
O            14.766028886        17.383372988        35.489439825
O            11.825883607        17.366094539        35.489486073
O             8.851567712        17.366094293        35.489487591
O             5.911422830        17.383372475        35.489439495
O             2.955456110        17.391919068        35.486940458
O            17.721995084        17.391919139        35.486940806
O            14.747461144        10.929513267        35.461772878
O            11.760533300        10.975833744        35.486924767
O             8.916919120        10.975834589        35.486911521
O             5.929989943        10.929513436        35.461771353
O             2.959835765        10.918596072        35.474942016
O            17.717614954        10.918596085        35.474942285
O            14.763853284         4.427553403        35.475549849
O            11.809597932         4.429838500        35.470843562
O             8.867853473         4.429838513        35.470843679
O             5.913598194         4.427553454        35.475549637
O             2.956291357         4.426655422        35.476700892
O             1.476725701         6.499113426        34.399871559
O            16.245519051        19.444350549        34.401286885
O            13.291902964        19.435843279        34.403377346
O            10.338725520        19.394888557        34.412333913
O             7.385548638        19.435842515        34.403377438
O             4.431932503        19.444350026        34.401286802
O             1.476725701        19.450747527        34.399871560
O            16.245811770        12.974930479        34.378930813
O            13.211707362        12.974930475        34.465430012
O            10.338737841        12.974930645        34.384634665
O             7.465734768        12.974930475        34.465415708
O             4.431637031        12.974930479        34.378929877
O             1.476724754        12.974930477        34.388231847
O            16.245519051         6.505510413        34.401286884
O            13.291902963         6.514017688        34.403377346
O            10.338725520         6.554972425        34.412333916
O             7.385548638         6.514018452        34.403377438
O             4.431932504         6.505510936        34.401286801
H            10.338803444        12.974931010        33.416528131
