     140
SCF Done               0.00000000
O            15.846790898        10.281164564        40.814425403
O             2.581934838        18.266684268        47.869816766
O            15.864571615         8.101791395        40.335160411
O             4.767968688        18.162904594        47.618191275
O             3.847933572        17.388640924        40.851798924
O            13.450250873         9.643396456        47.202130871
O             1.637100301        17.487119423        40.930442081
O            13.365659538         7.446471412        47.095966042
O             3.985221904        18.282288098        50.646381906
O            12.865525478         8.546665963        50.024308012
O             5.603754542        15.555543167        51.219462590
O             1.255178232         0.435819365        50.101895614
O             6.632241042        16.663673914        49.640034411
O             2.510897046         1.607120518        51.453984654
O             6.605509705         0.431722824        49.578855115
O             1.242936265        16.681163515        50.114030209
O             5.605282351         1.539555818        51.177394851
O             2.510689675        15.504282893        51.451152676
O             4.215467298        19.396597713        53.549639422
O            11.355804020         8.375594042        59.798723882
O             4.194175457        17.192797097        53.554539601
O            13.634383736         8.362444245        59.905111837
H            13.529891894         8.341694926        60.857008129
O            13.855616477         8.504671071        53.005822506
O             4.622039906        19.436245608        60.438999668
H             4.676846059        19.368692585        61.392878344
O            11.656020222         8.517768324        52.928835627
O             4.598576875        17.155422246        60.422093621
O            10.186642133         6.908133445        50.694868794
O            14.330041874        11.383999973        49.601047521
O            11.274621011         5.885961935        49.095771244
O            15.534183848        10.146905071        50.943396274
O            14.348304684         5.745270582        49.524704273
O            11.275562155        11.215946453        49.124837632
O            15.551051779         6.956299420        50.893476234
O            10.188987018        10.166148108        50.707346659
C            14.969328830         9.994414513        43.359480673
C             2.083971968        18.016133624        45.180579514
C            14.897442059         7.620754397        43.117912993
C             4.450446773        17.889987422        44.820446375
C             4.223354478        17.732076976        43.477548390
C            14.467025353         9.885594439        44.635441009
C             1.856608496        17.866542755        43.832395171
C            14.407929992         7.512193155        44.406471337
C            15.671066300         9.074496935        41.167023765
C             3.600875191        18.163864021        47.140814267
C             2.768568558        17.521680212        41.510413910
C            13.626386668         8.564293737        46.572702417
C            15.170083261         8.868691022        42.587595170
C             3.375349698        18.020422828        45.665251009
C             2.934963242        17.714727494        42.989899028
C            14.182259162         8.646059128        45.162738056
C             7.400229052        13.361482781        51.052770678
C            17.072386002         2.510922441        49.845292707
C             8.568322182        14.508971455        49.331975331
C             0.669061504         3.833322691        51.318993726
C             8.554052590         2.589204314        49.267457735
C            17.048644704        14.603127665        49.892020336
C             7.400918515         3.720034371        51.009261205
C             0.668921484        13.284724705        51.347510882
C             4.384300805         0.035997012        56.346526146
C            11.411778185         8.437676578        57.100913462
C             4.361268467        17.104434426        56.353760561
C            13.805126118         8.424176483        57.186396273
C            13.852369440         8.451906462        55.811574178
C             4.465365064         0.041263158        57.720035234
C            11.461205104         8.465879460        55.726529036
C             4.442205113        17.107534564        57.726995033
C             8.288655186         4.777216220        50.915110826
C            16.142969573        13.564877477        49.786499138
C             9.447299652         3.645448143        49.177529576
C            17.482748002        12.247470920        51.247027171
C            16.167226639         3.547753923        49.721552454
C             9.457436008        13.450487665        49.233671385
C            17.480936609         4.866900293        51.204410200
C             8.286313846        12.302921147        50.952415693
C             6.534961096        15.639073671        50.372040522
C             1.472711974         1.497619309        50.745921625
C             6.523826879         1.454390590        50.316259147
C             1.464204454        15.618836177        50.756494341
C             4.242049753        18.295681158        54.162796878
C            12.520869892         8.381286385        59.332906492
C            12.734172914         8.500374082        53.579812855
C             4.580461175        18.301453291        59.911548150
C            10.318749739         5.918996983        49.920477419
C            15.347893974        11.233825274        50.330135837
C            15.361709832         5.879598188        50.263893309
C            10.319497692        11.167683173        49.948616977
C             7.530108751        14.476160209        50.245210839
C             0.471336104         2.647328483        50.638254989
C             7.522526424         2.614145531        50.188854487
C             0.460102633        14.469420865        50.666943779
C             4.332155024        18.298966175        55.667812702
C            12.583595128         8.415755708        57.827221291
C            12.681029273         8.472007729        55.086184596
C             4.493500141        18.306176476        58.406609561
C             9.326228780         4.749743127        50.002836474
C            16.353472204        12.378058122        50.460672837
C            16.364202313         4.733905765        50.400746476
C             9.328290082        12.337069364        50.044955703
H            15.191414095        10.968359719        42.940476730
H             1.261394039        18.129495895        45.875521047
H            15.051546922         6.732161245        42.520923554
H             5.454929659        17.904536465        45.224183386
H             5.047949399        17.625037583        42.785387344
H            14.292351788        10.766374000        45.241037943
H             0.850619070        17.860305505        43.433275142
H            14.180747305         6.543006163        44.832400753
H             6.588411362        13.329979315        51.768402810
H            16.919103533         1.580674965        49.312966755
H             8.678285423        15.377307652        48.694952029
H             1.547202401         3.940984835        51.942852624
H             8.657406551         1.728512397        48.619072195
H            16.884563002        15.532347601        49.361179027
H             6.593530054         3.745458222        51.730119623
H             1.556918698        13.179787101        51.957784869
H             4.360052600         0.962023397        55.785605803
H            10.460761517         8.431832440        57.619894793
H             4.319262587        16.174786348        55.799997397
H            14.718794773         8.407772806        57.767569547
H            14.799098672         8.457986078        55.285839010
H             4.506575136         0.976438160        58.264633089
H            10.553635277         8.482656788        55.136010237
H             4.465634468        16.176997118        58.281427573
H             8.186334534         5.637956789        51.563668000
H            15.256356604        13.668205656        49.173805097
H            10.255896890         3.617414572        48.458275946
H            17.647999488        11.318219847        51.777250594
H            15.291186036         3.441531892        49.094389583
H            10.270577680        13.484094866        48.519781348
H            17.634807515         5.797005704        51.736624590
H             8.177598374        11.435390636        51.590794912
Zn            4.078744362        16.613834293        51.748373006
Zn            2.221609463        18.289311573        49.702166281
Zn            5.545662360        18.265722895        49.360226452
Zn            4.085461758         0.495385593        51.736856297
Zn           14.496317808         8.536415854        51.214416521
Zn           12.929666862        10.218830981        48.946225669
Zn           11.174361660         8.532603444        51.089311769
Zn           12.919344404         6.891140100        48.886985848
